Started on: Mon, 07 Apr 2025 15:00:56 +0300
/*---------------------------------------------------------------------------*\
| =========                 |                                                 |
| \\      /  F ield         | OpenFOAM: The Open Source CFD Toolbox           |
|  \\    /   O peration     | Version:  2406                                  |
|   \\  /    A nd           | Website:  www.openfoam.com                      |
|    \\/     M anipulation  |                                                 |
\*---------------------------------------------------------------------------*/
Build  : _9bfe8264-20241212 OPENFOAM=2406 patch=241212 version=2406
Arch   : "LSB;label=32;scalar=64"
Exec   : blockMesh
Date   : Apr 07 2025
Time   : 15:00:56
Host   : ale-ubuntu22
PID    : 9607
I/O    : uncollated
Case   : /home/ale/my_couple/cavity_temp
nProcs : 1
trapFpe: Floating point exception trapping enabled (FOAM_SIGFPE).
fileModificationChecking : Monitoring run-time modified files using timeStampMaster (fileModificationSkew 5, maxFileModificationPolls 20)
allowSystemOperations : Allowing user-supplied system call operations

// * * * * * * * * * * * * * * * * * * * * * * * * * * * * * * * * * * * * * //
Create time

Creating block mesh from "system/blockMeshDict"
Creating block edges
No non-planar block faces defined
Creating topology blocks

Creating topology patches - from boundary section

Creating block mesh topology

Check topology

	Basic statistics
		Number of internal faces : 0
		Number of boundary faces : 6
		Number of defined boundary faces : 6
		Number of undefined boundary faces : 0
	Checking patch -> block consistency

Creating block offsets
Creating merge list (topological search)...
Deleting polyMesh directory "constant/polyMesh"

Creating polyMesh from blockMesh
Creating patches
Creating cells
Creating points with scale (1 1 1)
    Block 0 cell size :
        i : 0.02 .. 0.02
        j : 0.02 .. 0.02
        k : 0.02 .. 0.02

No patch pairs to merge

Writing polyMesh with 0 cellZones
----------------
Mesh Information
----------------
  boundingBox: (0 0 0) (1 1 1)
  nPoints: 132651
  nCells: 125000
  nFaces: 382500
  nInternalFaces: 367500
----------------
Patches
----------------
  patch 0 (start: 367500 size: 2500) name: leftWall
  patch 1 (start: 370000 size: 2500) name: rightWall
  patch 2 (start: 372500 size: 2500) name: bottomWall
  patch 3 (start: 375000 size: 2500) name: topWall
  patch 4 (start: 377500 size: 5000) name: frontAndBack

End

/*---------------------------------------------------------------------------*\
| =========                 |                                                 |
| \\      /  F ield         | OpenFOAM: The Open Source CFD Toolbox           |
|  \\    /   O peration     | Version:  2406                                  |
|   \\  /    A nd           | Website:  www.openfoam.com                      |
|    \\/     M anipulation  |                                                 |
\*---------------------------------------------------------------------------*/
Build  : _9bfe8264-20241212 OPENFOAM=2406 patch=241212 version=2406
Arch   : "LSB;label=32;scalar=64"
Exec   : topoSet
Date   : Apr 07 2025
Time   : 15:00:56
Host   : ale-ubuntu22
PID    : 9609
I/O    : uncollated
Case   : /home/ale/my_couple/cavity_temp
nProcs : 1
trapFpe: Floating point exception trapping enabled (FOAM_SIGFPE).
fileModificationChecking : Monitoring run-time modified files using timeStampMaster (fileModificationSkew 5, maxFileModificationPolls 20)
allowSystemOperations : Allowing user-supplied system call operations

// * * * * * * * * * * * * * * * * * * * * * * * * * * * * * * * * * * * * * //
Create time

Create polyMesh for time = 0

Reading topoSetDict

Time = 0
    mesh not changed.
Created cellSet box1
    Applying source boxToCell
    Adding cells with centre within boxes 1((0 0 0) (1 1 1))
    cellSet box1 now size 125000

End

/*---------------------------------------------------------------------------*\
| =========                 |                                                 |
| \\      /  F ield         | OpenFOAM: The Open Source CFD Toolbox           |
|  \\    /   O peration     | Version:  2406                                  |
|   \\  /    A nd           | Website:  www.openfoam.com                      |
|    \\/     M anipulation  |                                                 |
\*---------------------------------------------------------------------------*/
Build  : _9bfe8264-20241212 OPENFOAM=2406 patch=241212 version=2406
Arch   : "LSB;label=32;scalar=64"
Exec   : myPoissonFoam
Date   : Apr 07 2025
Time   : 15:00:57
Host   : ale-ubuntu22
PID    : 9631
I/O    : uncollated
Case   : /home/ale/my_couple/cavity_temp
nProcs : 1
trapFpe: Floating point exception trapping enabled (FOAM_SIGFPE).
fileModificationChecking : Monitoring run-time modified files using timeStampMaster (fileModificationSkew 5, maxFileModificationPolls 20)
allowSystemOperations : Allowing user-supplied system call operations

// * * * * * * * * * * * * * * * * * * * * * * * * * * * * * * * * * * * * * //
Create time

Create mesh for time = 0

Reading transportProperties

Reading field Temperature


Starting transient iteration loop

---[preciceAdapter] Loaded the OpenFOAM-preCICE adapter - v1.3.1.
[PRINT] Adapter::configure() - START
Adapter::configFileRead() - START
---[preciceAdapter] Reading preciceDict...
Adapter::configFileRead() - FP module IS enabled
Adapter::configFileRead() - About to create FP::FluidParticle
Adapter::configFileRead() - Successfully created FP::FluidParticle
Adapter::configFileRead() - About to call FP_->configure()
Adapter::configFileRead() - Successfully called FP_->configure()
Adapter::configFileRead() - END
[PRINT] Adapter::configure() - configFileRead() completed OK
[PRINT] Adapter::configure() - About to create precice::Participant
[PRINT] Adapter::configure() - Participant Name = cavity_temp
[PRINT] Adapter::configure() - Config File = ../precice-config.xml
[PRINT] Adapter::configure() - Rank = 0, Size = 1
---[precice] [0m This is preCICE version 3.1.2
---[precice] [0m Revision info: no-info [git failed to run]
---[precice] [0m Build type: Release (without debug log)
---[precice] [0m Configuring preCICE with configuration "../precice-config.xml"
---[precice] [0m I am participant "cavity_temp"
[PRINT] Adapter::configure() - Successfully created precice::Participant
[PRINT] Adapter::configure() - Checking if interfaces need creation (count: 1)
[PRINT] Adapter::configure() - Starting interface creation 0
[PRINT] Adapter::configure() - Interface object 0 created for mesh "VolumeMesh"
[PRINT] Adapter::configure() - Adding writers for interface 0
[PRINT] Adapter::configure() - Trying to add writer for: "T"
[PRINT] Added FP writer for "T"
[PRINT] Adapter::configure() - Successfully added writer for: "T"
[PRINT] Adapter::configure() - Adding readers for interface 0
[PRINT] Adapter::configure() - Creating buffer for interface 0
[PRINT] Adapter::configure() - Buffer created for interface 0
[PRINT] Adapter::configure() - Finished configuration for interface 0
[PRINT] Adapter::configure() - Finished interface creation loop
[PRINT] Adapter::configure() - Calling initialize()
[PRINT] Adapter::initialize() - START
[PRINT] Adapter::initialize() - preCICE does not require initial data.
[PRINT] Adapter::initialize() - Calling precice_->initialize()
---[precice] [0m Setting up primary communication to coupling partner/s
